Circuit: * C:\Users\rohit\Documents\fd-fnir\sim\Draft1.asc

Direct Newton iteration failed to find .op point.  (Use ".option noopiter" to skip.)
Starting Gmin stepping
Gmin = 10
Gmin = 1.07374
Gmin = 0.115292
Gmin = 0.0123794
vernier = 0.5
vernier = 0.25
vernier = 0.125
vernier = 0.0625
vernier = 0.03125
Gmin = 0.0118196
vernier = 0.015625
vernier = 0.0208333
Gmin = 0.0114122
vernier = 0.0277778
vernier = 0.037037
Gmin = 0.0106798
vernier = 0.0493827
Gmin = 0.00959194
vernier = 0.0658435
vernier = 0.0877914
Gmin = 0.0080491
vernier = 0.117055
vernier = 0.156073
Gmin = 0.00610489
vernier = 0.208098
Gmin = 0.0039123
vernier = 0.277464
vernier = 0.369952
Gmin = 0.00190721
vernier = 0.493269
vernier = 0.657691
Gmin = 0.000625207
vernier = 0.328846
vernier = 0.164423
vernier = 0.0822114
vernier = 0.0411057
vernier = 0.0205529
vernier = 0.0102764
Gmin = 0.000496136
vernier = 0.00513821
vernier = 0.00256911
vernier = 0.00128455
vernier = 0.000642277
vernier = 0.000481708
Gmin = 0
Gmin stepping failed

Starting source stepping with srcstepmethod=0
Source Step = 3.0303%
Source Step = 33.3333%
Source Step = 63.6364%
Source Step = 88.6364%
vernier = 0.0625
Source Step = 87.8995%
Starting source stepping with srcstepmethod=1
Source Step = 3.0303%
Source Step = 33.3333%
Source Step = 63.6364%
Source Step = 88.6364%
vernier = 0.0625
Source stepping failed

Pseudo Transient succeeded in finding the operating point at 531.286 ms.
Heightened Def Con from 0.0057747 to 0.0057747
Heightened Def Con from 0.00682211 to 0.00682211
Heightened Def Con from 0.00922318 to 0.00922318
Heightened Def Con from 0.00922344 to 0.00922344
Heightened Def Con from 0.0092235 to 0.0092235

Date: Tue Mar 15 09:51:41 2022
Total elapsed time: 0.872 seconds.

tnom = 27
temp = 27
method = modified trap
totiter = 38388
traniter = 23305
tranpoints = 5891
accept = 4618
rejected = 1475
matrix size = 136
fillins = 178
solver = Normal
Thread vector: 6.8/3.9[3] 1.3/0.8[3] 2.0/1.2[3] 0.3/0.6[1]  2592/500
Matrix Compiler1: 16.20 KB object code size  3.4/1.0/[0.9]
Matrix Compiler2: 14.29 KB object code size  0.9/1.1/[0.7]

